8

C         -4.41300       -0.17760        0.43050
C         -3.15750       -0.17690       -0.43680
C         -1.89220       -0.05930        0.42040
C         -0.63310       -0.05880       -0.45450
C          0.63310        0.05880        0.40230
C          1.89220        0.05930       -0.47270
C          3.15750        0.17690        0.38460
C          4.41300        0.17760       -0.48280
